<?xml version="1.0" encoding="UTF-8"?>

<!-- generated on 2025-10-13 16:08:04 by Eclipse SUMO netedit Version 1.24.0
-->

<additional xmlns:xsi="http://www.w3.org/2001/XMLSchema-instance" xsi:noNamespaceSchemaLocation="http://sumo.dlr.de/xsd/additional_file.xsd">
    <!-- MeanDataEdges -->
    <edgeData id="wizard_example" file="edgeData.xml" period="3600.00"/>
</additional>
